Version 4
SHEET 1 6032 1092
WIRE -1328 -1520 -1424 -1520
WIRE -1136 -1520 -1248 -1520
WIRE 2640 -1456 2320 -1456
WIRE 3104 -1456 2640 -1456
WIRE 3232 -1456 3104 -1456
WIRE 5488 -1376 5488 -1424
WIRE 5328 -1360 5184 -1360
WIRE 5664 -1360 5520 -1360
WIRE 3104 -1328 3104 -1456
WIRE 3232 -1328 3232 -1456
WIRE 5200 -1328 5184 -1328
WIRE 5536 -1328 5520 -1328
WIRE 2640 -1280 2640 -1456
WIRE 2992 -1280 2640 -1280
WIRE 3504 -1280 3344 -1280
WIRE 3680 -1280 3504 -1280
WIRE 3776 -1280 3680 -1280
WIRE 3856 -1280 3776 -1280
WIRE 3952 -1280 3856 -1280
WIRE 4192 -1280 3952 -1280
WIRE 4512 -1280 4192 -1280
WIRE 2960 -1248 2944 -1248
WIRE 3680 -1248 3680 -1280
WIRE 3776 -1248 3776 -1280
WIRE 3856 -1248 3856 -1280
WIRE 3952 -1248 3952 -1280
WIRE 4192 -1248 4192 -1280
WIRE 4816 -1248 4816 -1296
WIRE 5152 -1248 5152 -1312
WIRE 5488 -1248 5488 -1312
WIRE 3504 -1232 3504 -1280
WIRE 2784 -1200 2736 -1200
WIRE 2912 -1200 2848 -1200
WIRE 2960 -1200 2960 -1248
WIRE 2960 -1200 2912 -1200
WIRE 2992 -1200 2960 -1200
WIRE 3424 -1200 3344 -1200
WIRE -624 -1184 -704 -1184
WIRE -432 -1184 -560 -1184
WIRE 528 -1184 384 -1184
WIRE 3680 -1152 3680 -1184
WIRE 3776 -1152 3776 -1184
WIRE 3856 -1152 3856 -1184
WIRE 3952 -1152 3952 -1184
WIRE 2784 -1120 2736 -1120
WIRE 2992 -1120 2864 -1120
WIRE 3360 -1120 3344 -1120
WIRE 3392 -1120 3360 -1120
WIRE 3504 -1120 3504 -1168
WIRE 3504 -1120 3472 -1120
WIRE 4816 -1120 4816 -1168
WIRE -704 -1056 -704 -1184
WIRE -704 -1056 -1392 -1056
WIRE -640 -1056 -704 -1056
WIRE -432 -1056 -432 -1184
WIRE -432 -1056 -544 -1056
WIRE -208 -1056 -432 -1056
WIRE 384 -1056 384 -1184
WIRE 384 -1056 -208 -1056
WIRE 512 -1056 384 -1056
WIRE 752 -1056 512 -1056
WIRE 960 -1056 832 -1056
WIRE 1024 -1056 960 -1056
WIRE 2992 -1040 2928 -1040
WIRE 3360 -1040 3360 -1120
WIRE 3408 -1040 3360 -1040
WIRE 3504 -1040 3504 -1120
WIRE 3504 -1040 3472 -1040
WIRE -208 -1024 -208 -1056
WIRE -208 -1024 -272 -1024
WIRE -144 -1024 -208 -1024
WIRE -80 -1024 -144 -1024
WIRE -16 -1024 -80 -1024
WIRE 48 -1024 -16 -1024
WIRE 112 -1024 48 -1024
WIRE 176 -1024 112 -1024
WIRE 1024 -1024 1024 -1056
WIRE 1024 -1024 928 -1024
WIRE 1120 -1024 1024 -1024
WIRE 1216 -1024 1120 -1024
WIRE 512 -1008 512 -1056
WIRE -272 -992 -272 -1024
WIRE -208 -992 -208 -1024
WIRE -144 -992 -144 -1024
WIRE -80 -992 -80 -1024
WIRE -16 -992 -16 -1024
WIRE 48 -992 48 -1024
WIRE 112 -992 112 -1024
WIRE 176 -992 176 -1024
WIRE 928 -992 928 -1024
WIRE 1024 -992 1024 -1024
WIRE 1120 -992 1120 -1024
WIRE 1216 -992 1216 -1024
WIRE 2992 -960 2960 -960
WIRE 3360 -960 3344 -960
WIRE 3456 -960 3360 -960
WIRE 3584 -960 3536 -960
WIRE 3360 -928 3360 -960
WIRE 3376 -928 3360 -928
WIRE 4816 -912 4816 -960
WIRE -272 -896 -272 -928
WIRE -208 -896 -208 -928
WIRE -208 -896 -272 -896
WIRE -144 -896 -144 -928
WIRE -144 -896 -208 -896
WIRE -80 -896 -80 -928
WIRE -80 -896 -144 -896
WIRE -16 -896 -16 -928
WIRE -16 -896 -80 -896
WIRE 48 -896 48 -928
WIRE 48 -896 -16 -896
WIRE 112 -896 112 -928
WIRE 112 -896 48 -896
WIRE 176 -896 176 -928
WIRE 176 -896 112 -896
WIRE 928 -896 928 -928
WIRE 1024 -896 1024 -928
WIRE 1024 -896 928 -896
WIRE 1120 -896 1120 -928
WIRE 1120 -896 1024 -896
WIRE 1216 -896 1216 -928
WIRE 1216 -896 1120 -896
WIRE 3680 -896 3680 -928
WIRE 3776 -896 3776 -928
WIRE 3856 -896 3856 -928
WIRE 3952 -896 3952 -928
WIRE -272 -880 -272 -896
WIRE 512 -880 512 -928
WIRE 928 -880 928 -896
WIRE 2640 -880 2640 -1280
WIRE 2992 -880 2640 -880
WIRE 3424 -880 3344 -880
WIRE 2384 -800 2336 -800
WIRE 2544 -800 2448 -800
WIRE 2912 -800 2544 -800
WIRE 2992 -800 2912 -800
WIRE 3488 -800 3344 -800
WIRE 3680 -800 3680 -832
WIRE 3680 -800 3488 -800
WIRE 3776 -800 3776 -832
WIRE 3776 -800 3680 -800
WIRE 3856 -800 3856 -832
WIRE 3856 -800 3776 -800
WIRE 3952 -800 3952 -832
WIRE 3952 -800 3856 -800
WIRE 4224 -800 3952 -800
WIRE 4512 -800 4224 -800
WIRE 4816 -784 4816 -832
WIRE 4224 -768 4224 -800
WIRE 2784 -720 2736 -720
WIRE 2992 -720 2864 -720
WIRE 3360 -720 3344 -720
WIRE 3376 -720 3360 -720
WIRE 3488 -720 3488 -736
WIRE 3488 -720 3456 -720
WIRE 2960 -640 2960 -960
WIRE 2992 -640 2960 -640
WIRE 3360 -640 3360 -720
WIRE 3392 -640 3360 -640
WIRE 3488 -640 3488 -720
WIRE 3488 -640 3456 -640
WIRE 2992 -560 2928 -560
WIRE 3360 -560 3344 -560
WIRE 3456 -560 3360 -560
WIRE 3584 -560 3536 -560
WIRE 3360 -528 3360 -560
WIRE 3376 -528 3360 -528
WIRE 4176 -368 4176 -432
WIRE 4880 -368 4880 -432
WIRE 4176 -256 4176 -288
WIRE 4880 -256 4880 -288
WIRE 4176 -144 4176 -192
WIRE 4880 -144 4880 -192
WIRE 4112 -96 3840 -96
WIRE 4816 -96 4544 -96
FLAG -1424 -1520 0
FLAG -1136 -1520 Vin
FLAG 3168 -512 0
FLAG 2736 -1200 0
FLAG 2336 -800 0
FLAG 4512 -1280 P5V
FLAG 4512 -800 N5V
FLAG 3376 -928 pgood1
FLAG 3376 -528 pgood2
FLAG 3776 -1152 0
FLAG 3856 -1152 0
FLAG 3584 -560 P5V
FLAG 3584 -960 P5V
FLAG 3952 -1152 0
FLAG 3776 -928 0
FLAG 3856 -928 0
FLAG 3952 -928 0
FLAG 3840 -96 pgood2
FLAG 4176 -48 0
FLAG 4176 -432 P5V
FLAG 4880 -48 0
FLAG 4880 -432 P5V
FLAG 4544 -96 pgood1
FLAG 2320 -1456 Vin_filt
FLAG 5152 -1248 0
FLAG 5200 -1328 0
FLAG 5328 -1360 load_p
FLAG 5488 -1248 0
FLAG 5536 -1328 0
FLAG 5664 -1360 load_n
FLAG 4816 -1120 0
FLAG 4816 -1296 load_p
FLAG 4816 -784 0
FLAG 4816 -960 load_n
FLAG 928 -880 0
FLAG -1392 -1056 Vin
FLAG 528 -1184 Vin_filt
FLAG -272 -880 0
FLAG 512 -880 0
FLAG 2736 -1120 0
FLAG 2736 -720 0
FLAG 3680 -928 0
FLAG 3424 -880 0
FLAG 3424 -1200 0
FLAG 3680 -1152 0
FLAG 4224 -688 0
FLAG 4192 -1168 0
FLAG 2912 -1200 SS1
FLAG 2912 -800 SS2
FLAG 960 -1056 Vdamp
FLAG 2544 -720 0
FLAG 2864 -1248 0
FLAG 3360 -1120 fbP
FLAG 3360 -720 fbN
SYMBOL PowerProducts\\LTM8049 3168 -944 R0
SYMATTR InstName U1
SYMBOL voltage -1232 -1520 R90
WINDOW 0 -32 56 VBottom 2
WINDOW 3 32 56 VTop 2
WINDOW 123 0 0 Left 0
WINDOW 39 0 0 Left 0
SYMATTR InstName V1
SYMATTR Value {vin}
SYMBOL res 2880 -1136 R90
WINDOW 0 0 56 VBottom 2
WINDOW 3 32 56 VTop 2
SYMATTR InstName R1
SYMATTR Value 80.6K
SYMBOL res 2880 -736 R90
WINDOW 0 0 56 VBottom 2
WINDOW 3 32 56 VTop 2
SYMATTR InstName R2
SYMATTR Value 80.6K
SYMBOL cap 3664 -1248 R0
SYMATTR InstName C3
SYMATTR Value 22µ
SYMBOL res 3488 -1136 R90
WINDOW 0 0 56 VBottom 2
WINDOW 3 32 56 VTop 2
SYMATTR InstName R3
SYMATTR Value 45.570k
SYMBOL cap 3664 -832 M180
WINDOW 0 24 56 Left 2
WINDOW 3 24 8 Left 2
SYMATTR InstName C4
SYMATTR Value 22µ
SYMBOL res 3472 -704 M270
WINDOW 0 32 56 VTop 2
WINDOW 3 0 56 VBottom 2
SYMATTR InstName R4
SYMATTR Value 60.108k
SYMBOL res 3552 -976 R90
WINDOW 0 0 56 VBottom 2
WINDOW 3 32 56 VTop 2
SYMATTR InstName R5
SYMATTR Value 10k
SYMBOL cap 2848 -1216 R90
WINDOW 0 0 32 VBottom 2
WINDOW 3 32 32 VTop 2
SYMATTR InstName C5
SYMATTR Value {SSnorm}
SYMBOL cap 2448 -816 R90
WINDOW 0 0 32 VBottom 2
WINDOW 3 32 32 VTop 2
SYMATTR InstName C6
SYMATTR Value {SSnorm}
SYMBOL cap 3472 -1056 R90
WINDOW 0 0 32 VBottom 2
WINDOW 3 32 32 VTop 2
SYMATTR InstName C7
SYMATTR Value 1n
SYMBOL cap 3456 -656 R90
WINDOW 0 0 32 VBottom 2
WINDOW 3 32 32 VTop 2
SYMATTR InstName C8
SYMATTR Value 1n
SYMBOL res 3552 -576 R90
WINDOW 0 0 56 VBottom 2
WINDOW 3 32 56 VTop 2
SYMATTR InstName R7
SYMATTR Value 10k
SYMBOL cap 3760 -1248 R0
SYMATTR InstName C9
SYMATTR Value 22µ
SYMBOL cap 3840 -1248 R0
SYMATTR InstName C10
SYMATTR Value 22µ
SYMBOL cap 3936 -1248 R0
SYMATTR InstName C11
SYMATTR Value 22µ
SYMBOL cap 3760 -832 M180
WINDOW 0 24 56 Left 2
WINDOW 3 24 8 Left 2
SYMATTR InstName C12
SYMATTR Value 22µ
SYMBOL cap 3840 -832 M180
WINDOW 0 24 56 Left 2
WINDOW 3 24 8 Left 2
SYMATTR InstName C13
SYMATTR Value 22µ
SYMBOL cap 3936 -832 M180
WINDOW 0 24 56 Left 2
WINDOW 3 24 8 Left 2
SYMATTR InstName C14
SYMATTR Value 22µ
SYMBOL ESM\\__Symbol\ Templates\\npn 4112 -144 R0
SYMATTR InstName Q1
SYMATTR Value BC817-25
SYMBOL res 4160 -384 R0
SYMATTR InstName R9
SYMATTR Value 150
SYMBOL ESM\\__Symbol\ Templates\\npn 4816 -144 R0
SYMATTR InstName Q2
SYMATTR Value BC817-25
SYMBOL res 4864 -384 R0
SYMATTR InstName R10
SYMATTR Value 150
SYMBOL ESM\\Ideal\ Components\\VeRES 5152 -1344 M0
SYMATTR InstName U2
SYMBOL ESM\\Ideal\ Components\\VeRES 5488 -1344 M0
SYMATTR InstName U3
SYMBOL voltage 4816 -1264 R0
WINDOW 123 0 0 Left 0
WINDOW 39 0 0 Left 0
SYMATTR InstName V2
SYMATTR Value PWL(1m 100k 1.001m 5 1.05m 10 1.5m 10 1.501m 100 2m 100 2.001m 5 2.5m 5 2.501m 100k 4m 10)
SYMBOL voltage 4816 -928 R0
WINDOW 123 0 0 Left 0
WINDOW 39 0 0 Left 0
SYMATTR InstName V3
SYMATTR Value PWL(1m 100k 1.001m 5 1.05m 10 1.5m 10 1.501m 100 2m 100 2.001m 5 2.5m 5 2.501m 100k 4m 10)
SYMBOL polcap 944 -992 M0
SYMATTR InstName C1
SYMATTR Value T491X686K025AT
SYMATTR SpiceLine Rser=700m
SYMATTR Prefix X
SYMBOL res 848 -1072 R90
WINDOW 0 0 56 VBottom 2
WINDOW 3 32 56 VTop 2
SYMATTR InstName R6
SYMATTR Value 1
SYMBOL cap -256 -992 M0
WINDOW 0 8 8 Right 2
SYMATTR InstName C2
SYMATTR Value C1206C475K5RACTU
SYMATTR Prefix X
SYMBOL cap -224 -992 R0
WINDOW 3 24 56 Invisible 2
SYMATTR Value C1206C475K5RACTU
SYMATTR InstName C27
SYMATTR Prefix X
SYMBOL cap -160 -992 R0
WINDOW 3 24 56 Invisible 2
SYMATTR Value C1206C475K5RACTU
SYMATTR InstName C28
SYMATTR Prefix X
SYMBOL cap -96 -992 R0
WINDOW 3 24 56 Invisible 2
SYMATTR Value C1206C475K5RACTU
SYMATTR InstName C29
SYMATTR Prefix X
SYMBOL cap -32 -992 R0
WINDOW 3 24 56 Invisible 2
SYMATTR Value C1206C475K5RACTU
SYMATTR InstName C30
SYMATTR Prefix X
SYMBOL cap 32 -992 R0
WINDOW 3 24 56 Invisible 2
SYMATTR Value C1206C475K5RACTU
SYMATTR InstName C31
SYMATTR Prefix X
SYMBOL cap 96 -992 R0
WINDOW 3 24 56 Invisible 2
SYMATTR Value C1206C475K5RACTU
SYMATTR InstName C32
SYMATTR Prefix X
SYMBOL cap 160 -992 R0
WINDOW 3 24 56 Invisible 2
SYMATTR Value C1206C475K5RACTU
SYMATTR InstName C33
SYMATTR Prefix X
SYMBOL polcap 1040 -992 M0
WINDOW 3 24 57 Invisible 2
SYMATTR Value T491X686K025AT
SYMATTR InstName C34
SYMATTR SpiceLine Rser=700m
SYMATTR Prefix X
SYMBOL polcap 1136 -992 M0
WINDOW 3 24 57 Invisible 2
SYMATTR Value T491X686K025AT
SYMATTR InstName C35
SYMATTR SpiceLine Rser=700m
SYMATTR Prefix X
SYMBOL polcap 1232 -992 M0
WINDOW 3 24 57 Invisible 2
SYMATTR Value T491X686K025AT
SYMATTR InstName C36
SYMATTR SpiceLine Rser=700m
SYMATTR Prefix X
SYMBOL ESM\\Inductors\\WE-HCF -592 -1056 R0
SYMATTR InstName U4
SYMATTR SpiceModel 2013_7443634700_47u
SYMBOL res 496 -1024 R0
SYMATTR InstName R8
SYMATTR Value 47k
SYMBOL schottky -560 -1200 R90
WINDOW 0 0 32 VBottom 2
WINDOW 3 32 32 VTop 2
SYMATTR InstName D3
SYMATTR Value RBR15BGE30A
SYMATTR Description Diode
SYMATTR Type diode
SYMBOL res 4208 -784 R0
SYMATTR InstName R12
SYMATTR Value 1000
SYMBOL LED 4160 -256 R0
SYMATTR InstName D4
SYMATTR Value LXZ1-PB01
SYMATTR Description Diode
SYMATTR Type diode
SYMBOL LED 4864 -256 R0
SYMATTR InstName D1
SYMATTR Value LXZ1-PB01
SYMATTR Description Diode
SYMATTR Type diode
SYMBOL fra 3504 -1168 R0
SYMATTR InstName @1
SYMATTR SpiceLine delay=1.1m fstart=90.0844 fend=100K oct=4 fcoarse=720.675 nmax=2 pp0=160.416m pp1=10.026m f0=90.0844 f1=1.44135K tavgmin=100µ tsettle=693.794µ
SYMBOL res 4176 -1264 R0
SYMATTR InstName R11
SYMATTR Value 1000
SYMBOL voltage 2544 -816 R0
WINDOW 123 0 0 Left 0
WINDOW 39 0 0 Left 0
SYMATTR InstName V4
SYMATTR Value 2
SYMBOL voltage 2960 -1248 R90
WINDOW 123 0 0 Left 0
WINDOW 39 0 0 Left 0
SYMATTR InstName V5
SYMATTR Value 2
SYMBOL fra 3488 -736 R0
SYMATTR InstName @2
SYMATTR SpiceLine delay=1.1m fstart=90.0844 fend=100K oct=4 fcoarse=720.675 nmax=2 pp0=160.96m pp1=10.06m f0=90.0844 f1=1.44135K tavgmin=100µ tsettle=693.794µ
TEXT 2928 -560 Right 2 ;NC_X
TEXT 2928 -1040 Right 2 ;NC_X
TEXT 2264 -504 Left 2 !.fra tstart=1m uic
TEXT 1936 -1200 Left 2 ;use -iy because SnPb is easy to melt
TEXT 4568 -608 Left 2 ;2.0-2.4 Vf @ 20mA
TEXT -1392 -1424 Left 2 !;.step param vin list 2.6 5 10 12 16
TEXT -864 -1592 Left 2 !.SUBCKT C1206C475K5RACTU 1 6\n*Temp = 25°C, Bias = 0VDC, Center Frequency = 4000 Hz\n*KEMET Model RLC Cerm\nR1 3 4 0.192140857999481\nR2 2 5 0.779999971389771\nR3 1 6 212800000\nL1 1 2 3.65000027399974E-11\nL2 2 3 6.93500052059951E-10\nC1 4 6 4.58494306095845E-06\nC2 5 6 2.09999990463257E-12\n.ENDS
TEXT -464 -1648 Left 2 ;modeled @4khz, around filter resonant area
TEXT -208 -1592 Left 2 !.SUBCKT T491X686K025AT 1 8\n*Temp = 25°C, Bias = 0VDC, Center Frequency = 4000 Hz\n*KEMET Model RLC Tant5RC\nR1 2 3 0.0578946887614398\nR2 3 4 0.0289473443807199\nR3 4 5 0.0289473443807199\nR4 5 6 0.0289473443807199\nR5 6 7 0.0289473443807199\nR6 2 8 1471000\nL1 1 2 2.29999996825825E-09\nC1 3 8 2.19354838709677E-06\nC2 4 8 4.38709677419355E-06\nC3 5 8 8.7741935483871E-06\nC4 6 8 1.75483870967742E-05\nC5 7 8 3.50967741935484E-05\n.ENDS
TEXT -648 -1248 Left 2 ;Closest match
TEXT -384 -1840 Left 5 ;Input Filtering
TEXT 3416 -1752 Left 5 ;Converter
TEXT 1848 -992 Left 2 ;SS1/SS2 will trigger switching at ~400mV\nSwitching current is limited until they reach 2V
TEXT 5192 -1464 Left 2 ;Load switching tests
TEXT -1792 -1216 Left 2 ;no current limit for this test.  assuming ideal supply, only observing effects from feedback injection
TEXT 3016 -1600 Left 2 ;most stability analyses i have seen put the FRA component directly following the output leading to the FB network.
TEXT 2576 -1720 Left 2 !.param SSnorm 220n
TEXT 2576 -1688 Left 2 !.param SSskip 1p
TEXT 2808 -1880 Left 2 ;fsw for this Rt value is 1MHz
TEXT 3312 -1552 Left 2 ;trise from 100k to 5ohm load snap is 121.4137us 10/90\napprox loop bandwidth is 2882.7Hz
TEXT 2576 -1640 Left 2 !.ic V(Vin_filt)={vin} V(Vdamp)={vin} V(P5V)=3.5 V(N5V)=-5.067 V(SS1)=1.5 V(SS2)=1.5 V(fbP)=1.2 V(fbN)=-.0087
TEXT -1504 -1912 Left 2 !.param vin 16
