Version 4
SHEET 1 3408 1092
WIRE -1296 -1344 -1392 -1344
WIRE -1104 -1344 -1216 -1344
WIRE -1040 -1024 -1120 -1024
WIRE -848 -1024 -976 -1024
WIRE 112 -1024 -32 -1024
WIRE -1568 -896 -1808 -896
WIRE -1120 -896 -1120 -1024
WIRE -1120 -896 -1488 -896
WIRE -1056 -896 -1120 -896
WIRE -848 -896 -848 -1024
WIRE -848 -896 -960 -896
WIRE -624 -896 -848 -896
WIRE -32 -896 -32 -1024
WIRE -32 -896 -624 -896
WIRE 96 -896 -32 -896
WIRE 336 -896 96 -896
WIRE 608 -896 416 -896
WIRE -624 -864 -624 -896
WIRE -624 -864 -688 -864
WIRE -560 -864 -624 -864
WIRE -496 -864 -560 -864
WIRE -432 -864 -496 -864
WIRE -368 -864 -432 -864
WIRE -304 -864 -368 -864
WIRE -240 -864 -304 -864
WIRE 608 -864 608 -896
WIRE 608 -864 512 -864
WIRE 704 -864 608 -864
WIRE 800 -864 704 -864
WIRE 96 -848 96 -896
WIRE -688 -832 -688 -864
WIRE -624 -832 -624 -864
WIRE -560 -832 -560 -864
WIRE -496 -832 -496 -864
WIRE -432 -832 -432 -864
WIRE -368 -832 -368 -864
WIRE -304 -832 -304 -864
WIRE -240 -832 -240 -864
WIRE 512 -832 512 -864
WIRE 608 -832 608 -864
WIRE 704 -832 704 -864
WIRE 800 -832 800 -864
WIRE -688 -736 -688 -768
WIRE -624 -736 -624 -768
WIRE -624 -736 -688 -736
WIRE -560 -736 -560 -768
WIRE -560 -736 -624 -736
WIRE -496 -736 -496 -768
WIRE -496 -736 -560 -736
WIRE -432 -736 -432 -768
WIRE -432 -736 -496 -736
WIRE -368 -736 -368 -768
WIRE -368 -736 -432 -736
WIRE -304 -736 -304 -768
WIRE -304 -736 -368 -736
WIRE -240 -736 -240 -768
WIRE -240 -736 -304 -736
WIRE 512 -736 512 -768
WIRE 608 -736 608 -768
WIRE 608 -736 512 -736
WIRE 704 -736 704 -768
WIRE 704 -736 608 -736
WIRE 800 -736 800 -768
WIRE 800 -736 704 -736
WIRE -688 -720 -688 -736
WIRE 96 -720 96 -768
WIRE 512 -720 512 -736
FLAG -1392 -1344 0
FLAG -1104 -1344 Vin
FLAG 512 -720 0
FLAG -1808 -896 Vin
FLAG 112 -1024 Vin_filt
FLAG -688 -720 0
FLAG 96 -720 0
SYMBOL voltage -1200 -1344 R90
WINDOW 0 -32 56 VBottom 2
WINDOW 3 32 56 VTop 2
WINDOW 123 0 0 Left 0
WINDOW 39 0 0 Left 0
SYMATTR InstName V1
SYMATTR Value PULSE(0 {vin} 1m 1n 1n 1 1)
SYMBOL polcap 528 -832 M0
SYMATTR InstName C17
SYMATTR Value T491X686K025AT
SYMATTR SpiceLine Rser=700m
SYMATTR Prefix X
SYMBOL res 432 -912 R90
WINDOW 0 0 56 VBottom 2
WINDOW 3 32 56 VTop 2
SYMATTR InstName R11
SYMATTR Value 1
SYMBOL cap -672 -832 M0
WINDOW 0 8 8 Right 2
SYMATTR InstName C9
SYMATTR Value C1206C475K5RACTU
SYMATTR Prefix X
SYMBOL cap -640 -832 R0
WINDOW 3 24 56 Invisible 2
SYMATTR Value C1206C475K5RACTU
SYMATTR InstName C10
SYMATTR Prefix X
SYMBOL cap -576 -832 R0
WINDOW 3 24 56 Invisible 2
SYMATTR Value C1206C475K5RACTU
SYMATTR InstName C11
SYMATTR Prefix X
SYMBOL cap -512 -832 R0
WINDOW 3 24 56 Invisible 2
SYMATTR Value C1206C475K5RACTU
SYMATTR InstName C12
SYMATTR Prefix X
SYMBOL cap -448 -832 R0
WINDOW 3 24 56 Invisible 2
SYMATTR Value C1206C475K5RACTU
SYMATTR InstName C13
SYMATTR Prefix X
SYMBOL cap -384 -832 R0
WINDOW 3 24 56 Invisible 2
SYMATTR Value C1206C475K5RACTU
SYMATTR InstName C14
SYMATTR Prefix X
SYMBOL cap -320 -832 R0
WINDOW 3 24 56 Invisible 2
SYMATTR Value C1206C475K5RACTU
SYMATTR InstName C15
SYMATTR Prefix X
SYMBOL cap -256 -832 R0
WINDOW 3 24 56 Invisible 2
SYMATTR Value C1206C475K5RACTU
SYMATTR InstName C16
SYMATTR Prefix X
SYMBOL polcap 624 -832 M0
WINDOW 3 24 57 Invisible 2
SYMATTR Value T491X686K025AT
SYMATTR InstName C18
SYMATTR SpiceLine Rser=700m
SYMATTR Prefix X
SYMBOL polcap 720 -832 M0
WINDOW 3 24 57 Invisible 2
SYMATTR Value T491X686K025AT
SYMATTR InstName C19
SYMATTR SpiceLine Rser=700m
SYMATTR Prefix X
SYMBOL polcap 816 -832 M0
WINDOW 3 24 57 Invisible 2
SYMATTR Value T491X686K025AT
SYMATTR InstName C20
SYMATTR SpiceLine Rser=700m
SYMATTR Prefix X
SYMBOL ESM\\Inductors\\WE-HCF -1008 -896 R0
SYMATTR InstName U1
SYMATTR SpiceModel 2013_7443634700_47u
SYMBOL res 80 -864 R0
SYMATTR InstName R1
SYMATTR Value 47k
SYMBOL schottky -976 -1040 R90
WINDOW 0 0 32 VBottom 2
WINDOW 3 32 32 VTop 2
SYMATTR InstName D1
SYMATTR Value RBR15BGE30A
SYMATTR Description Diode
SYMATTR Type diode
SYMBOL current -1568 -896 R270
WINDOW 0 32 40 VTop 2
WINDOW 3 -32 40 VBottom 2
WINDOW 123 0 0 Left 0
WINDOW 39 4 40 VTop 2
SYMATTR InstName I1
SYMATTR Value 3
SYMATTR SpiceLine load
TEXT -1360 -1248 Left 2 !.step param vin list 2.6 5 10 12 16
TEXT -1376 -1464 Left 2 ;step input voltage
TEXT -248 -1816 Left 2 !.SUBCKT C1206C475K5RACTU 1 6\n*Temp = 25°C, Bias = 0VDC, Center Frequency = 4000 Hz\n*KEMET Model RLC Cerm\nR1 3 4 0.192140857999481\nR2 2 5 0.779999971389771\nR3 1 6 212800000\nL1 1 2 3.65000027399974E-11\nL2 2 3 6.93500052059951E-10\nC1 4 6 4.58494306095845E-06\nC2 5 6 2.09999990463257E-12\n.ENDS
TEXT -1424 -712 Left 2 !.tran 10m
TEXT 152 -1872 Left 2 ;modeled @4khz, around filter resonant area
TEXT 408 -1816 Left 2 !.SUBCKT T491X686K025AT 1 8\n*Temp = 25°C, Bias = 0VDC, Center Frequency = 4000 Hz\n*KEMET Model RLC Tant5RC\nR1 2 3 0.0578946887614398\nR2 3 4 0.0289473443807199\nR3 4 5 0.0289473443807199\nR4 5 6 0.0289473443807199\nR5 6 7 0.0289473443807199\nR6 2 8 1471000\nL1 1 2 2.29999996825825E-09\nC1 3 8 2.19354838709677E-06\nC2 4 8 4.38709677419355E-06\nC3 5 8 8.7741935483871E-06\nC4 6 8 1.75483870967742E-05\nC5 7 8 3.50967741935484E-05\n.ENDS
TEXT -1064 -1088 Left 2 ;Closest match
